<?xml version="1.0" encoding="UTF-8"?>

<!-- generated on 2022-12-10 18:58:59.507504 by osmWebWizard.py v1_15_0+0002-e6790248698
<configuration>
    <allow-fringe.min-length value="1000.0"/>
    <end value="300"/>
    <fringe-factor value="5"/>
    <fringe-start-attributes value="departSpeed=&quot;max&quot;"/>
    <insertion-density value="300.0"/>
    <lanes value="True"/>
    <min-distance.fringe value="10.0"/>
    <min-distance value="300.0"/>
    <net-file value="C:\Users\Maciek\Sumo\2022-12-10-18-58-56\osm.net.xml.gz"/>
    <remove-loops value="True"/>
    <route-file value="C:\Users\Maciek\Sumo\2022-12-10-18-58-56\osm.passenger.rou.xml"/>
    <trip-attributes value="departLane=&quot;best&quot;"/>
    <output-trip-file value="C:\Users\Maciek\Sumo\2022-12-10-18-58-56\osm.passenger.trips.xml"/>
    <prefix value="veh"/>
    <validate value="True"/>
    <vehicle-class value="passenger"/>
</configuration>
-->

<!-- generated on 2022-12-10 18:58:59 by Eclipse SUMO duarouter Version 1.15.0
<configuration xmlns:xsi="http://www.w3.org/2001/XMLSchema-instance" xsi:noNamespaceSchemaLocation="http://sumo.dlr.de/xsd/duarouterConfiguration.xsd">

    <input>
        <net-file value="C:\Users\Maciek\Sumo\2022-12-10-18-58-56\osm.net.xml.gz"/>
        <route-files value="C:\Users\Maciek\Sumo\2022-12-10-18-58-56\osm.passenger.trips.xml"/>
    </input>

    <output>
        <output-file value="C:\Users\Maciek\Sumo\2022-12-10-18-58-56\osm.passenger.trips.xml.tmp"/>
        <alternatives-output value="NUL"/>
        <write-trips value="true"/>
    </output>

    <processing>
        <remove-loops value="true"/>
    </processing>

    <time>
        <begin value="0"/>
        <end value="300"/>
    </time>

    <report>
        <no-warnings value="true"/>
        <ignore-errors value="true"/>
        <no-step-log value="true"/>
    </report>

</configuration>
-->

<routes xmlns:xsi="http://www.w3.org/2001/XMLSchema-instance" xsi:noNamespaceSchemaLocation="http://sumo.dlr.de/xsd/routes_file.xsd">
    <vType id="veh_passenger" vClass="passenger"/>
    <trip id="veh0" type="veh_passenger" depart="0.00" departLane="best" departSpeed="max" from="4611723" to="-196850606#4"/>
    <trip id="veh1" type="veh_passenger" depart="0.52" departLane="best" from="147066248#4" to="-110676319"/>
    <trip id="veh2" type="veh_passenger" depart="1.04" departLane="best" from="-4611708#1" to="188386313#1"/>
    <trip id="veh3" type="veh_passenger" depart="1.56" departLane="best" from="-147066248#0" to="-43231842#1"/>
    <trip id="veh5" type="veh_passenger" depart="2.61" departLane="best" departSpeed="max" from="4588222" to="375311158#3"/>
    <trip id="veh6" type="veh_passenger" depart="3.13" departLane="best" from="-66071366#3" to="-840229277"/>
    <trip id="veh7" type="veh_passenger" depart="3.65" departLane="best" departSpeed="max" from="-202817674#3" to="-23017852#1"/>
    <trip id="veh8" type="veh_passenger" depart="4.17" departLane="best" departSpeed="max" from="4588222" to="389101374#1"/>
    <trip id="veh9" type="veh_passenger" depart="4.69" departLane="best" departSpeed="max" from="110676319" to="199847247#1"/>
    <trip id="veh10" type="veh_passenger" depart="5.21" departLane="best" from="4611708#2" to="340498982#0"/>
    <trip id="veh11" type="veh_passenger" depart="5.73" departLane="best" from="4611718#1" to="22972473#6"/>
    <trip id="veh12" type="veh_passenger" depart="6.25" departLane="best" departSpeed="max" from="375311154#0" to="-147066248#6"/>
    <trip id="veh13" type="veh_passenger" depart="6.77" departLane="best" from="4611711#0" to="-474362271"/>
    <trip id="veh14" type="veh_passenger" depart="7.29" departLane="best" from="-196850606#0" to="-4611693#0"/>
    <trip id="veh15" type="veh_passenger" depart="7.82" departLane="best" from="23017852#0" to="4611714#7"/>
    <trip id="veh17" type="veh_passenger" depart="8.86" departLane="best" from="1105574291#2" to="-43376693#2"/>
    <trip id="veh18" type="veh_passenger" depart="9.38" departLane="best" from="340498988#0" to="-28251222#0"/>
    <trip id="veh19" type="veh_passenger" depart="9.90" departLane="best" from="-389101365#2" to="389101374#1"/>
    <trip id="veh20" type="veh_passenger" depart="10.42" departLane="best" from="-375459782#0" to="1105574290#1"/>
    <trip id="veh22" type="veh_passenger" depart="11.46" departLane="best" from="4611711#1" to="-120675240#3"/>
    <trip id="veh23" type="veh_passenger" depart="11.98" departLane="best" departSpeed="max" from="-874528353#2" to="4611714#2"/>
    <trip id="veh24" type="veh_passenger" depart="12.50" departLane="best" from="-4611696#4" to="-66071366#0"/>
    <trip id="veh25" type="veh_passenger" depart="13.03" departLane="best" departSpeed="max" from="4611723" to="-54781811#1"/>
    <trip id="veh26" type="veh_passenger" depart="13.55" departLane="best" departSpeed="max" from="342968607#0" to="120359703"/>
    <trip id="veh27" type="veh_passenger" depart="14.07" departLane="best" from="461526152#0" to="168515533#4"/>
    <trip id="veh28" type="veh_passenger" depart="14.59" departLane="best" departSpeed="max" from="-4612403#2" to="-4611708#0"/>
    <trip id="veh29" type="veh_passenger" depart="15.11" departLane="best" departSpeed="max" from="233833576#0" to="-4611713#0"/>
    <trip id="veh30" type="veh_passenger" depart="15.63" departLane="best" from="23755961#1" to="4773464#1"/>
    <trip id="veh31" type="veh_passenger" depart="16.15" departLane="best" from="1116358457" to="-4588219#0"/>
    <trip id="veh32" type="veh_passenger" depart="16.67" departLane="best" from="-202817674#2" to="-147066248#6"/>
    <trip id="veh33" type="veh_passenger" depart="17.19" departLane="best" departSpeed="max" from="4588219#0" to="15973619#1"/>
    <trip id="veh34" type="veh_passenger" depart="17.71" departLane="best" from="-15973619#7" to="1105574291#0"/>
    <trip id="veh35" type="veh_passenger" depart="18.24" departLane="best" from="882389494" to="196850606#4"/>
    <trip id="veh36" type="veh_passenger" depart="18.76" departLane="best" from="66071379#1" to="4612403#2"/>
    <trip id="veh37" type="veh_passenger" depart="19.28" departLane="best" from="-1105574289#1" to="-389101365#2"/>
    <trip id="veh38" type="veh_passenger" depart="19.80" departLane="best" departSpeed="max" from="4611723" to="-4611713#0"/>
    <trip id="veh39" type="veh_passenger" depart="20.32" departLane="best" from="196850607#1" to="-375459783#0"/>
    <trip id="veh40" type="veh_passenger" depart="20.84" departLane="best" from="461526152#0" to="-474362271"/>
    <trip id="veh41" type="veh_passenger" depart="21.36" departLane="best" departSpeed="max" from="-665241888#1" to="340498982#5"/>
    <trip id="veh42" type="veh_passenger" depart="21.88" departLane="best" departSpeed="max" from="292429056#0" to="-330840137"/>
    <trip id="veh43" type="veh_passenger" depart="22.40" departLane="best" departSpeed="max" from="43156728#0" to="196850608#0"/>
    <trip id="veh44" type="veh_passenger" depart="22.92" departLane="best" from="43376693#2" to="-196850606#6"/>
    <trip id="veh46" type="veh_passenger" depart="23.97" departLane="best" from="-1105574291#2" to="47755711"/>
    <trip id="veh47" type="veh_passenger" depart="24.49" departLane="best" departSpeed="max" from="4611723" to="-66071366#2"/>
    <trip id="veh48" type="veh_passenger" depart="25.01" departLane="best" from="196850606#4" to="168515533#5"/>
    <trip id="veh49" type="veh_passenger" depart="25.53" departLane="best" departSpeed="max" from="-169999355#2" to="43376477"/>
    <trip id="veh50" type="veh_passenger" depart="26.05" departLane="best" from="43156728#1" to="-292429056#2"/>
    <trip id="veh51" type="veh_passenger" depart="26.57" departLane="best" from="168515533#4" to="199847247#0"/>
    <trip id="veh52" type="veh_passenger" depart="27.09" departLane="best" departSpeed="max" from="-4612403#2" to="47707170#4"/>
    <trip id="veh53" type="veh_passenger" depart="27.61" departLane="best" from="147066248#5" to="-4588219#0"/>
    <trip id="veh54" type="veh_passenger" depart="28.13" departLane="best" from="461526152#0" to="340498982#5"/>
    <trip id="veh55" type="veh_passenger" depart="28.66" departLane="best" from="-15973619#0" to="188386313#1"/>
    <trip id="veh56" type="veh_passenger" depart="29.18" departLane="best" from="-24242882" to="-4588222"/>
    <trip id="veh57" type="veh_passenger" depart="29.70" departLane="best" from="1077923225#0" to="23755950#1"/>
    <trip id="veh58" type="veh_passenger" depart="30.22" departLane="best" from="-4611712" to="-4588219#1"/>
    <trip id="veh59" type="veh_passenger" depart="30.74" departLane="best" departSpeed="max" from="-169999355#2" to="340498982#4"/>
    <trip id="veh60" type="veh_passenger" depart="31.26" departLane="best" from="4611711#1" to="4773464#1"/>
    <trip id="veh61" type="veh_passenger" depart="31.78" departLane="best" from="-4611714#2" to="-35557143#4"/>
    <trip id="veh62" type="veh_passenger" depart="32.30" departLane="best" from="-4611706#0" to="-292429056#2"/>
    <trip id="veh64" type="veh_passenger" depart="33.34" departLane="best" from="168515533#2" to="-4611693#1"/>
    <trip id="veh65" type="veh_passenger" depart="33.87" departLane="best" departSpeed="max" from="4588222" to="-43156728#0"/>
    <trip id="veh66" type="veh_passenger" depart="34.39" departLane="best" departSpeed="max" from="-202817674#3" to="15973619#15"/>
    <trip id="veh67" type="veh_passenger" depart="34.91" departLane="best" from="147066248#5" to="168515533#5"/>
    <trip id="veh68" type="veh_passenger" depart="35.43" departLane="best" from="375311154#4" to="-35557161#3"/>
    <trip id="veh69" type="veh_passenger" depart="35.95" departLane="best" from="68647306#5" to="-23017852#2"/>
    <trip id="veh70" type="veh_passenger" depart="36.47" departLane="best" from="4611718#1" to="-4611708#1"/>
    <trip id="veh71" type="veh_passenger" depart="36.99" departLane="best" from="-4588217" to="168514765#1"/>
    <trip id="veh72" type="veh_passenger" depart="37.51" departLane="best" from="-4611714#9" to="47755711"/>
    <trip id="veh73" type="veh_passenger" depart="38.03" departLane="best" from="15973619#11" to="4612403#2"/>
    <trip id="veh74" type="veh_passenger" depart="38.55" departLane="best" departSpeed="max" from="233833576#0" to="-147066248#8"/>
    <trip id="veh75" type="veh_passenger" depart="39.08" departLane="best" from="-882389497" to="4611714#7"/>
    <trip id="veh76" type="veh_passenger" depart="39.60" departLane="best" departSpeed="max" from="66071379#0" to="47755711"/>
    <trip id="veh77" type="veh_passenger" depart="40.12" departLane="best" from="-4611714#3" to="-35557161#4"/>
    <trip id="veh78" type="veh_passenger" depart="40.64" departLane="best" from="-194069450#1" to="-4588219#0"/>
    <trip id="veh79" type="veh_passenger" depart="41.16" departLane="best" from="1116360587#1" to="15973619#12"/>
    <trip id="veh80" type="veh_passenger" depart="41.68" departLane="best" from="1111982484" to="840229277"/>
    <trip id="veh81" type="veh_passenger" depart="42.20" departLane="best" departSpeed="max" from="-4612403#2" to="-4611693#1"/>
    <trip id="veh82" type="veh_passenger" depart="42.72" departLane="best" from="-66071366#3" to="882389494"/>
    <trip id="veh83" type="veh_passenger" depart="43.24" departLane="best" departSpeed="max" from="233833576#0" to="375459783#1"/>
    <trip id="veh84" type="veh_passenger" depart="43.76" departLane="best" departSpeed="max" from="-375311158#3" to="-474362271"/>
    <trip id="veh85" type="veh_passenger" depart="44.29" departLane="best" departSpeed="max" from="66071379#0" to="23017852#0"/>
    <trip id="veh86" type="veh_passenger" depart="44.81" departLane="best" from="23017852#0" to="42747981#1"/>
    <trip id="veh87" type="veh_passenger" depart="45.33" departLane="best" from="196850607#2" to="4611722#1"/>
    <trip id="veh88" type="veh_passenger" depart="45.85" departLane="best" departSpeed="max" from="-375311158#3" to="665241888#1"/>
    <trip id="veh89" type="veh_passenger" depart="46.37" departLane="best" from="-196850606#0" to="-43156728#0"/>
    <trip id="veh90" type="veh_passenger" depart="46.89" departLane="best" from="24509318" to="35557161#4"/>
    <trip id="veh91" type="veh_passenger" depart="47.41" departLane="best" from="4611713#1" to="24997595#1"/>
    <trip id="veh92" type="veh_passenger" depart="47.93" departLane="best" departSpeed="max" from="4611723" to="-4611706#1"/>
    <trip id="veh93" type="veh_passenger" depart="48.45" departLane="best" from="24509318" to="340498982#0"/>
    <trip id="veh95" type="veh_passenger" depart="49.50" departLane="best" departSpeed="max" from="-4611694#1" to="375459782#0"/>
    <trip id="veh96" type="veh_passenger" depart="50.02" departLane="best" departSpeed="max" from="342968607#0" to="-4773029#1"/>
    <trip id="veh97" type="veh_passenger" depart="50.54" departLane="best" departSpeed="max" from="-874528353#2" to="-43156728#3"/>
    <trip id="veh98" type="veh_passenger" depart="51.06" departLane="best" departSpeed="max" from="-169999355#2" to="168515533#4"/>
    <trip id="veh99" type="veh_passenger" depart="51.58" departLane="best" departSpeed="max" from="-169999355#2" to="-4588219#0"/>
    <trip id="veh101" type="veh_passenger" depart="52.62" departLane="best" departSpeed="max" from="4611723" to="47707170#4"/>
    <trip id="veh103" type="veh_passenger" depart="53.66" departLane="best" departSpeed="max" from="342968607#0" to="54781811#1"/>
    <trip id="veh104" type="veh_passenger" depart="54.18" departLane="best" from="292429056#3" to="-24509317#0"/>
    <trip id="veh105" type="veh_passenger" depart="54.71" departLane="best" from="23017852#3" to="199847247#0"/>
    <trip id="veh106" type="veh_passenger" depart="55.23" departLane="best" departSpeed="max" from="-47755711" to="24509318"/>
    <trip id="veh107" type="veh_passenger" depart="55.75" departLane="best" departSpeed="max" from="375311154#0" to="43376477"/>
    <trip id="veh108" type="veh_passenger" depart="56.27" departLane="best" from="340498982#0" to="4611713#0"/>
    <trip id="veh109" type="veh_passenger" depart="56.79" departLane="best" from="-196850606#0" to="4773464#1"/>
    <trip id="veh110" type="veh_passenger" depart="57.31" departLane="best" from="4611714#2" to="-43156728#3"/>
    <trip id="veh112" type="veh_passenger" depart="58.35" departLane="best" from="340498982#1" to="4611712"/>
    <trip id="veh113" type="veh_passenger" depart="58.87" departLane="best" from="147066248#8" to="-1105574289#0"/>
    <trip id="veh114" type="veh_passenger" depart="59.40" departLane="best" departSpeed="max" from="-169999355#2" to="-4773029#0"/>
    <trip id="veh115" type="veh_passenger" depart="59.92" departLane="best" departSpeed="max" from="4611723" to="196850609#0"/>
    <trip id="veh116" type="veh_passenger" depart="60.44" departLane="best" from="-375311153#0" to="-292429056#2"/>
    <trip id="veh117" type="veh_passenger" depart="60.96" departLane="best" from="-8008608" to="4773464#1"/>
    <trip id="veh118" type="veh_passenger" depart="61.48" departLane="best" departSpeed="max" from="4588219#0" to="4612403#2"/>
    <trip id="veh119" type="veh_passenger" depart="62.00" departLane="best" departSpeed="max" from="4611723" to="4588217"/>
    <trip id="veh120" type="veh_passenger" depart="62.52" departLane="best" from="-4611714#9" to="-23755950#0"/>
    <trip id="veh121" type="veh_passenger" depart="63.04" departLane="best" from="43376693#2" to="4773029#1"/>
    <trip id="veh122" type="veh_passenger" depart="63.56" departLane="best" from="120359703" to="340498982#0"/>
    <trip id="veh123" type="veh_passenger" depart="64.08" departLane="best" departSpeed="max" from="-375311158#3" to="47755711"/>
    <trip id="veh124" type="veh_passenger" depart="64.61" departLane="best" from="4611722#0" to="68647306#6"/>
    <trip id="veh126" type="veh_passenger" depart="65.65" departLane="best" from="120675240#4" to="42747981#1"/>
    <trip id="veh127" type="veh_passenger" depart="66.17" departLane="best" departSpeed="max" from="4588222" to="4612403#2"/>
    <trip id="veh130" type="veh_passenger" depart="67.73" departLane="best" from="4611722#1" to="4612403#2"/>
    <trip id="veh132" type="veh_passenger" depart="68.77" departLane="best" from="168514765#1" to="4612403#2"/>
    <trip id="veh133" type="veh_passenger" depart="69.29" departLane="best" departSpeed="max" from="66071379#0" to="4611714#8"/>
    <trip id="veh134" type="veh_passenger" depart="69.82" departLane="best" from="340498982#1" to="-120675240#3"/>
    <trip id="veh135" type="veh_passenger" depart="70.34" departLane="best" from="68647306#4" to="196850607#1"/>
    <trip id="veh137" type="veh_passenger" depart="71.38" departLane="best" departSpeed="max" from="66071379#0" to="-375459783#0"/>
    <trip id="veh138" type="veh_passenger" depart="71.90" departLane="best" from="375311154#4" to="-54781811#1"/>
    <trip id="veh139" type="veh_passenger" depart="72.42" departLane="best" departSpeed="max" from="292429056#0" to="188386313#1"/>
    <trip id="veh140" type="veh_passenger" depart="72.94" departLane="best" departSpeed="max" from="1113726463" to="22972473#6"/>
    <trip id="veh141" type="veh_passenger" depart="73.46" departLane="best" from="-4612403#0" to="375311158#3"/>
    <trip id="veh143" type="veh_passenger" depart="74.50" departLane="best" from="375459783#1" to="35557161#1"/>
    <trip id="veh144" type="veh_passenger" depart="75.03" departLane="best" departSpeed="max" from="342968607#0" to="734578686"/>
    <trip id="veh145" type="veh_passenger" depart="75.55" departLane="best" from="-840229277" to="4611722#0"/>
    <trip id="veh146" type="veh_passenger" depart="76.07" departLane="best" from="375311154#3" to="4773029#1"/>
    <trip id="veh147" type="veh_passenger" depart="76.59" departLane="best" from="1116360926#1" to="-474362271"/>
    <trip id="veh148" type="veh_passenger" depart="77.11" departLane="best" from="-24997595#1" to="15973619#0"/>
    <trip id="veh150" type="veh_passenger" depart="78.15" departLane="best" departSpeed="max" from="4611723" to="-305153173"/>
    <trip id="veh151" type="veh_passenger" depart="78.67" departLane="best" departSpeed="max" from="-665241888#1" to="196850609#2"/>
    <trip id="veh152" type="veh_passenger" depart="79.19" departLane="best" departSpeed="max" from="153698394#0" to="23017852#1"/>
    <trip id="veh153" type="veh_passenger" depart="79.71" departLane="best" departSpeed="max" from="342968607#0" to="168515533#5"/>
    <trip id="veh154" type="veh_passenger" depart="80.24" departLane="best" from="-15973619#10" to="-4588219#0"/>
    <trip id="veh155" type="veh_passenger" depart="80.76" departLane="best" departSpeed="max" from="4588219#0" to="375311153#1"/>
    <trip id="veh156" type="veh_passenger" depart="81.28" departLane="best" from="-196850606#4" to="188386313#1"/>
    <trip id="veh157" type="veh_passenger" depart="81.80" departLane="best" from="340498982#0" to="-840229275"/>
    <trip id="veh158" type="veh_passenger" depart="82.32" departLane="best" from="-4611696#4" to="42747981#1"/>
    <trip id="veh159" type="veh_passenger" depart="82.84" departLane="best" departSpeed="max" from="342968607#0" to="-4588222"/>
    <trip id="veh160" type="veh_passenger" depart="83.36" departLane="best" departSpeed="max" from="-4611694#1" to="-110676319"/>
    <trip id="veh161" type="veh_passenger" depart="83.88" departLane="best" from="-4611714#6" to="168515533#5"/>
    <trip id="veh162" type="veh_passenger" depart="84.40" departLane="best" from="147066248#0" to="340498982#4"/>
    <trip id="veh163" type="veh_passenger" depart="84.92" departLane="best" from="-4611693#0" to="375311158#1"/>
    <trip id="veh164" type="veh_passenger" depart="85.45" departLane="best" from="-196850606#4" to="-4611706#0"/>
    <trip id="veh166" type="veh_passenger" depart="86.49" departLane="best" from="-23017852#3" to="15973619#11"/>
    <trip id="veh167" type="veh_passenger" depart="87.01" departLane="best" from="-43231842#0" to="665241888#1"/>
    <trip id="veh168" type="veh_passenger" depart="87.53" departLane="best" from="199847252#2" to="-147066248#8"/>
    <trip id="veh169" type="veh_passenger" depart="88.05" departLane="best" from="-15973619#5" to="-4611706#0"/>
    <trip id="veh170" type="veh_passenger" depart="88.57" departLane="best" from="24997595#1" to="-66071370"/>
    <trip id="veh171" type="veh_passenger" depart="89.09" departLane="best" departSpeed="max" from="4611723" to="-292429056#4"/>
    <trip id="veh172" type="veh_passenger" depart="89.61" departLane="best" departSpeed="max" from="375311154#0" to="188386313#1"/>
    <trip id="veh173" type="veh_passenger" depart="90.13" departLane="best" from="4611710#0" to="196850609#2"/>
    <trip id="veh174" type="veh_passenger" depart="90.66" departLane="best" from="-4611714#7" to="340498982#5"/>
    <trip id="veh175" type="veh_passenger" depart="91.18" departLane="best" from="43156728#1" to="194069450#0"/>
    <trip id="veh176" type="veh_passenger" depart="91.70" departLane="best" departSpeed="max" from="330840137" to="4611714#5"/>
    <trip id="veh177" type="veh_passenger" depart="92.22" departLane="best" from="-194069450#1" to="4612403#0"/>
    <trip id="veh178" type="veh_passenger" depart="92.74" departLane="best" departSpeed="max" from="-47755711" to="66071366#1"/>
    <trip id="veh179" type="veh_passenger" depart="93.26" departLane="best" from="22972473#6" to="-292429056#2"/>
    <trip id="veh180" type="veh_passenger" depart="93.78" departLane="best" departSpeed="max" from="375311154#0" to="-15973619#2"/>
    <trip id="veh181" type="veh_passenger" depart="94.30" departLane="best" from="120359703" to="196850607#0"/>
    <trip id="veh182" type="veh_passenger" depart="94.82" departLane="best" from="147066248#3" to="4773464#1"/>
    <trip id="veh183" type="veh_passenger" depart="95.34" departLane="best" from="4611714#8" to="43376693#1"/>
    <trip id="veh186" type="veh_passenger" depart="96.91" departLane="best" from="147066248#3" to="42747981#1"/>
    <trip id="veh187" type="veh_passenger" depart="97.43" departLane="best" from="-4611708#2" to="-4588219#0"/>
    <trip id="veh188" type="veh_passenger" depart="97.95" departLane="best" from="-375459783#0" to="375311153#1"/>
    <trip id="veh189" type="veh_passenger" depart="98.47" departLane="best" from="120359703" to="-35557161#3"/>
    <trip id="veh190" type="veh_passenger" depart="98.99" departLane="best" from="168514765#1" to="-292429056#2"/>
    <trip id="veh191" type="veh_passenger" depart="99.51" departLane="best" from="305153173" to="-110676319"/>
    <trip id="veh192" type="veh_passenger" depart="100.03" departLane="best" departSpeed="max" from="1113726463" to="202817674#3"/>
    <trip id="veh193" type="veh_passenger" depart="100.55" departLane="best" from="-147066248#0" to="340498982#5"/>
    <trip id="veh194" type="veh_passenger" depart="101.08" departLane="best" from="-305153173" to="168515533#5"/>
    <trip id="veh195" type="veh_passenger" depart="101.60" departLane="best" from="-15973619#14" to="-1105574290#1"/>
    <trip id="veh196" type="veh_passenger" depart="102.12" departLane="best" from="-4611696#5" to="66514478"/>
    <trip id="veh197" type="veh_passenger" depart="102.64" departLane="best" departSpeed="max" from="43156728#0" to="-1105574290#1"/>
    <trip id="veh198" type="veh_passenger" depart="103.16" departLane="best" from="389101374#1" to="4611714#5"/>
    <trip id="veh199" type="veh_passenger" depart="103.68" departLane="best" from="4611718#0" to="-196850606#0"/>
    <trip id="veh200" type="veh_passenger" depart="104.20" departLane="best" from="-1105574291#2" to="196850608#0"/>
    <trip id="veh201" type="veh_passenger" depart="104.72" departLane="best" from="-882389497" to="47707171#6"/>
    <trip id="veh203" type="veh_passenger" depart="105.76" departLane="best" from="340498988#0" to="43231842#0"/>
    <trip id="veh204" type="veh_passenger" depart="106.29" departLane="best" from="-24997595#0" to="-35557161#1"/>
    <trip id="veh205" type="veh_passenger" depart="106.81" departLane="best" departSpeed="max" from="233833576#0" to="-4588219#0"/>
    <trip id="veh206" type="veh_passenger" depart="107.33" departLane="best" from="389101373#2" to="-24509317#0"/>
    <trip id="veh207" type="veh_passenger" depart="107.85" departLane="best" from="-4611696#4" to="665241888#1"/>
    <trip id="veh208" type="veh_passenger" depart="108.37" departLane="best" from="-23017853" to="-110676319"/>
    <trip id="veh209" type="veh_passenger" depart="108.89" departLane="best" from="-840229275" to="375311153#0"/>
    <trip id="veh210" type="veh_passenger" depart="109.41" departLane="best" from="66071366#3" to="120359703"/>
    <trip id="veh211" type="veh_passenger" depart="109.93" departLane="best" departSpeed="max" from="375311154#0" to="-15973619#9"/>
    <trip id="veh212" type="veh_passenger" depart="110.45" departLane="best" from="-375311153#0" to="340498982#4"/>
    <trip id="veh216" type="veh_passenger" depart="112.54" departLane="best" from="196850608#1" to="120359703"/>
    <trip id="veh217" type="veh_passenger" depart="113.06" departLane="best" from="23017852#3" to="665241888#1"/>
    <trip id="veh218" type="veh_passenger" depart="113.58" departLane="best" from="340498982#0" to="4611714#3"/>
    <trip id="veh219" type="veh_passenger" depart="114.10" departLane="best" departSpeed="max" from="375311154#0" to="-15973619#4"/>
    <trip id="veh220" type="veh_passenger" depart="114.62" departLane="best" from="-375311158#2" to="665241888#1"/>
    <trip id="veh221" type="veh_passenger" depart="115.14" departLane="best" from="22972473#5" to="168515533#5"/>
    <trip id="veh222" type="veh_passenger" depart="115.66" departLane="best" departSpeed="max" from="153698394#0" to="389101373#0"/>
    <trip id="veh223" type="veh_passenger" depart="116.19" departLane="best" from="-4773029#1" to="4611722#1"/>
    <trip id="veh224" type="veh_passenger" depart="116.71" departLane="best" from="4611710#0" to="-196850606#4"/>
    <trip id="veh225" type="veh_passenger" depart="117.23" departLane="best" departSpeed="max" from="4611723" to="-4611706#0"/>
    <trip id="veh226" type="veh_passenger" depart="117.75" departLane="best" from="168514765#1" to="28251222#1"/>
    <trip id="veh227" type="veh_passenger" depart="118.27" departLane="best" from="-4611714#4" to="-389101365#2"/>
    <trip id="veh228" type="veh_passenger" depart="118.79" departLane="best" from="1077923225#0" to="47707171#6"/>
    <trip id="veh229" type="veh_passenger" depart="119.31" departLane="best" departSpeed="max" from="375311154#0" to="4611714#6"/>
    <trip id="veh230" type="veh_passenger" depart="119.83" departLane="best" from="-1105574289#0" to="66071366#3"/>
    <trip id="veh231" type="veh_passenger" depart="120.35" departLane="best" from="-196850606#4" to="389101365#0"/>
    <trip id="veh232" type="veh_passenger" depart="120.87" departLane="best" from="-196850606#0" to="43231842#2"/>
    <trip id="veh233" type="veh_passenger" depart="121.40" departLane="best" from="-375311153#0" to="340498982#5"/>
    <trip id="veh234" type="veh_passenger" depart="121.92" departLane="best" from="-196850606#1" to="4611694#1"/>
    <trip id="veh235" type="veh_passenger" depart="122.44" departLane="best" departSpeed="max" from="-202817674#3" to="-4588219#1"/>
    <trip id="veh237" type="veh_passenger" depart="123.48" departLane="best" from="22972470#1" to="15973619#11"/>
    <trip id="veh238" type="veh_passenger" depart="124.00" departLane="best" from="389101373#1" to="-734578686"/>
    <trip id="veh239" type="veh_passenger" depart="124.52" departLane="best" departSpeed="max" from="375311154#0" to="-4611714#3"/>
    <trip id="veh240" type="veh_passenger" depart="125.04" departLane="best" from="4611718#0" to="24997595#1"/>
    <trip id="veh242" type="veh_passenger" depart="126.08" departLane="best" from="22972473#1" to="43376477"/>
    <trip id="veh243" type="veh_passenger" depart="126.61" departLane="best" from="43376693#1" to="-4588219#0"/>
    <trip id="veh244" type="veh_passenger" depart="127.13" departLane="best" from="171423001#2" to="389101373#1"/>
    <trip id="veh245" type="veh_passenger" depart="127.65" departLane="best" from="68647306#1" to="196850606#0"/>
    <trip id="veh246" type="veh_passenger" depart="128.17" departLane="best" from="-54781811#1" to="23017853"/>
    <trip id="veh247" type="veh_passenger" depart="128.69" departLane="best" from="-4611693#0" to="-4588222"/>
    <trip id="veh248" type="veh_passenger" depart="129.21" departLane="best" from="22972470#3" to="4611714#5"/>
    <trip id="veh249" type="veh_passenger" depart="129.73" departLane="best" departSpeed="max" from="375311154#0" to="-292429056#2"/>
    <trip id="veh250" type="veh_passenger" depart="130.25" departLane="best" from="4611722#0" to="169999355#0"/>
    <trip id="veh251" type="veh_passenger" depart="130.77" departLane="best" from="4611722#1" to="22972473#5"/>
    <trip id="veh252" type="veh_passenger" depart="131.29" departLane="best" from="168515533#2" to="15973619#7"/>
    <trip id="veh253" type="veh_passenger" depart="131.82" departLane="best" from="-43376693#0" to="-15973619#0"/>
    <trip id="veh255" type="veh_passenger" depart="132.86" departLane="best" from="4611706#0" to="-120675240#3"/>
    <trip id="veh256" type="veh_passenger" depart="133.38" departLane="best" departSpeed="max" from="-169999355#2" to="340498982#4"/>
    <trip id="veh257" type="veh_passenger" depart="133.90" departLane="best" from="-15973619#15" to="-330840137"/>
    <trip id="veh259" type="veh_passenger" depart="134.94" departLane="best" departSpeed="max" from="43156728#0" to="24997595#1"/>
    <trip id="veh260" type="veh_passenger" depart="135.46" departLane="best" departSpeed="max" from="22972470#0" to="168514765#1"/>
    <trip id="veh261" type="veh_passenger" depart="135.98" departLane="best" from="15973619#10" to="4612403#2"/>
    <trip id="veh263" type="veh_passenger" depart="137.03" departLane="best" from="292429056#3" to="28251222#1"/>