<?xml version="1.0" encoding="UTF-8"?>

<!-- generated on 2022-12-17 15:27:29.844176 by osmWebWizard.py v1_15_0+0002-e6790248698
<configuration>
    <allow-fringe.min-length value="1000.0"/>
    <end value="360"/>
    <fringe-factor value="5"/>
    <fringe-start-attributes value="departSpeed=&quot;max&quot;"/>
    <insertion-density value="105.0"/>
    <lanes value="True"/>
    <min-distance.fringe value="10.0"/>
    <min-distance value="300.0"/>
    <net-file value="C:\Users\Maciek\Sumo\2022-12-17-15-27-21\osm.net.xml.gz"/>
    <remove-loops value="True"/>
    <route-file value="C:\Users\Maciek\Sumo\2022-12-17-15-27-21\osm.passenger.rou.xml"/>
    <trip-attributes value="departLane=&quot;best&quot;"/>
    <output-trip-file value="C:\Users\Maciek\Sumo\2022-12-17-15-27-21\osm.passenger.trips.xml"/>
    <prefix value="veh"/>
    <validate value="True"/>
    <vehicle-class value="passenger"/>
</configuration>
-->

<!-- generated on 2022-12-17 15:27:29 by Eclipse SUMO duarouter Version 1.15.0
<configuration xmlns:xsi="http://www.w3.org/2001/XMLSchema-instance" xsi:noNamespaceSchemaLocation="http://sumo.dlr.de/xsd/duarouterConfiguration.xsd">

    <input>
        <net-file value="C:\Users\Maciek\Sumo\2022-12-17-15-27-21\osm.net.xml.gz"/>
        <route-files value="C:\Users\Maciek\Sumo\2022-12-17-15-27-21\osm.passenger.trips.xml"/>
    </input>

    <output>
        <output-file value="C:\Users\Maciek\Sumo\2022-12-17-15-27-21\osm.passenger.trips.xml.tmp"/>
        <alternatives-output value="NUL"/>
        <write-trips value="true"/>
    </output>

    <processing>
        <remove-loops value="true"/>
    </processing>

    <time>
        <begin value="0"/>
        <end value="360"/>
    </time>

    <report>
        <no-warnings value="true"/>
        <ignore-errors value="true"/>
        <no-step-log value="true"/>
    </report>

</configuration>
-->

<routes xmlns:xsi="http://www.w3.org/2001/XMLSchema-instance" xsi:noNamespaceSchemaLocation="http://sumo.dlr.de/xsd/routes_file.xsd">
    <vType id="veh_passenger" vClass="passenger"/>
    <trip id="veh0" type="veh_passenger" depart="0.00" departLane="best" from="-23845949#2" to="119201840#9"/>
    <trip id="veh1" type="veh_passenger" depart="0.35" departLane="best" departSpeed="max" from="-466425810" to="-389530551#0"/>
    <trip id="veh2" type="veh_passenger" depart="0.69" departLane="best" from="347658331#1" to="266580486#0"/>
    <trip id="veh3" type="veh_passenger" depart="1.04" departLane="best" from="-4783361" to="-144842130#2"/>
    <trip id="veh4" type="veh_passenger" depart="1.38" departLane="best" from="-119201840#2" to="123951385#0"/>
    <trip id="veh5" type="veh_passenger" depart="1.73" departLane="best" from="243102978" to="142721972#1"/>
    <trip id="veh6" type="veh_passenger" depart="2.07" departLane="best" from="-123943336#4" to="266580485#4"/>
    <trip id="veh7" type="veh_passenger" depart="2.42" departLane="best" from="-42423965#0" to="-176273226#0"/>
    <trip id="veh8" type="veh_passenger" depart="2.76" departLane="best" from="4631991#3" to="-1086257064#0"/>
    <trip id="veh9" type="veh_passenger" depart="3.11" departLane="best" from="4631988#2" to="32035256#13"/>
    <trip id="veh10" type="veh_passenger" depart="3.45" departLane="best" from="-53621457#3" to="192053554#2"/>
    <trip id="veh11" type="veh_passenger" depart="3.80" departLane="best" from="8004060#4" to="604008284"/>
    <trip id="veh12" type="veh_passenger" depart="4.14" departLane="best" from="144945039#9" to="144962817#3"/>
    <trip id="veh13" type="veh_passenger" depart="4.49" departLane="best" from="-4684837#6" to="190701274#0"/>
    <trip id="veh14" type="veh_passenger" depart="4.83" departLane="best" from="4631988#4" to="35573587#8"/>
    <trip id="veh15" type="veh_passenger" depart="5.18" departLane="best" from="146173175#14" to="-852423324#6"/>
    <trip id="veh16" type="veh_passenger" depart="5.52" departLane="best" from="852423324#9" to="146175123#5"/>
    <trip id="veh17" type="veh_passenger" depart="5.87" departLane="best" from="4637741#0" to="201675315#6"/>
    <trip id="veh18" type="veh_passenger" depart="6.21" departLane="best" departSpeed="max" from="4684903#0" to="172451889#3"/>
    <trip id="veh19" type="veh_passenger" depart="6.56" departLane="best" departSpeed="max" from="32035243" to="-123951401#8"/>
    <trip id="veh20" type="veh_passenger" depart="6.90" departLane="best" from="-45869051#2" to="4684898#3"/>
    <trip id="veh21" type="veh_passenger" depart="7.25" departLane="best" departSpeed="max" from="-142721972#1" to="45869051#1"/>
    <trip id="veh22" type="veh_passenger" depart="7.59" departLane="best" from="-146173175#8" to="-4684837#11"/>
    <trip id="veh23" type="veh_passenger" depart="7.94" departLane="best" departSpeed="max" from="-800617494" to="-294423898"/>
    <trip id="veh24" type="veh_passenger" depart="8.28" departLane="best" from="-4645562#3" to="68314925#10"/>
    <trip id="veh25" type="veh_passenger" depart="8.63" departLane="best" departSpeed="max" from="238943577#0" to="190846091#0"/>
    <trip id="veh26" type="veh_passenger" depart="8.97" departLane="best" from="-23926912" to="35573587#6"/>
    <trip id="veh27" type="veh_passenger" depart="9.32" departLane="best" from="-23008593#4" to="-949605667#5"/>
    <trip id="veh28" type="veh_passenger" depart="9.66" departLane="best" from="-949605667#1" to="23845949#2"/>
    <trip id="veh29" type="veh_passenger" depart="10.01" departLane="best" from="152871033#0" to="123897184#3"/>
    <trip id="veh30" type="veh_passenger" depart="10.35" departLane="best" from="-4645566#0" to="45904914#2"/>
    <trip id="veh31" type="veh_passenger" depart="10.70" departLane="best" from="-45869051#5" to="-123951385#12"/>
    <trip id="veh32" type="veh_passenger" depart="11.04" departLane="best" departSpeed="max" from="-493403799" to="-4645562#16"/>
    <trip id="veh33" type="veh_passenger" depart="11.39" departLane="best" from="-37837031#0" to="-70163733#0"/>
    <trip id="veh34" type="veh_passenger" depart="11.73" departLane="best" departSpeed="max" from="4764160#0" to="53621043#2"/>
    <trip id="veh35" type="veh_passenger" depart="12.08" departLane="best" from="23926916#2" to="1084263641#2"/>
    <trip id="veh36" type="veh_passenger" depart="12.42" departLane="best" from="68314925#3" to="123956282#2"/>
    <trip id="veh37" type="veh_passenger" depart="12.77" departLane="best" from="-4645562#24" to="-46115662#0"/>
    <trip id="veh38" type="veh_passenger" depart="13.11" departLane="best" departSpeed="max" from="160130954" to="-4637741#0"/>
    <trip id="veh39" type="veh_passenger" depart="13.46" departLane="best" from="4764162#0" to="51218398#5"/>
    <trip id="veh40" type="veh_passenger" depart="13.80" departLane="best" from="10575630#2" to="37837031#2"/>
    <trip id="veh41" type="veh_passenger" depart="14.15" departLane="best" from="949605669#0" to="144480033#1"/>
    <trip id="veh42" type="veh_passenger" depart="14.49" departLane="best" from="144945039#5" to="123951410#1"/>
    <trip id="veh43" type="veh_passenger" depart="14.84" departLane="best" departSpeed="max" from="-146173530#9" to="220423347"/>
    <trip id="veh44" type="veh_passenger" depart="15.18" departLane="best" from="45904914#9" to="123943333#0"/>
    <trip id="veh45" type="veh_passenger" depart="15.53" departLane="best" from="140244087#0" to="-949605667#8"/>
    <trip id="veh46" type="veh_passenger" depart="15.87" departLane="best" from="-949605667#8" to="-146173175#13"/>
    <trip id="veh47" type="veh_passenger" depart="16.22" departLane="best" from="852423324#0" to="4684910#2"/>
    <trip id="veh48" type="veh_passenger" depart="16.56" departLane="best" from="-1093533103#0" to="340870402#1"/>
    <trip id="veh49" type="veh_passenger" depart="16.91" departLane="best" departSpeed="max" from="262428913" to="146173530#2"/>
    <trip id="veh50" type="veh_passenger" depart="17.25" departLane="best" from="-4645562#3" to="-23845949#4"/>
    <trip id="veh51" type="veh_passenger" depart="17.60" departLane="best" from="-146174357#4" to="123951390#2"/>
    <trip id="veh52" type="veh_passenger" depart="17.94" departLane="best" from="123951403#6" to="-77096578#5"/>
    <trip id="veh53" type="veh_passenger" depart="18.29" departLane="best" departSpeed="max" from="4764160#0" to="-4637741#4"/>
    <trip id="veh54" type="veh_passenger" depart="18.63" departLane="best" from="-142063347#2" to="-24700857"/>
    <trip id="veh55" type="veh_passenger" depart="18.98" departLane="best" from="542223826#1" to="470352347#4"/>
    <trip id="veh56" type="veh_passenger" depart="19.32" departLane="best" from="-4684898#9" to="-23845949#0"/>
    <trip id="veh57" type="veh_passenger" depart="19.67" departLane="best" from="190846091#3" to="-190733386#2"/>
    <trip id="veh58" type="veh_passenger" depart="20.01" departLane="best" from="443530115#1" to="146173530#7"/>
    <trip id="veh59" type="veh_passenger" depart="20.36" departLane="best" departSpeed="max" from="450126669#1" to="146173175#3"/>
    <trip id="veh60" type="veh_passenger" depart="20.70" departLane="best" from="1056708081#3" to="-53621457#1"/>
    <trip id="veh61" type="veh_passenger" depart="21.05" departLane="best" from="-119201840#3" to="6181240#1"/>
    <trip id="veh62" type="veh_passenger" depart="21.39" departLane="best" departSpeed="max" from="4764160#0" to="4645566#3"/>
    <trip id="veh63" type="veh_passenger" depart="21.74" departLane="best" departSpeed="max" from="-4764184#1" to="124126501#4"/>
    <trip id="veh64" type="veh_passenger" depart="22.08" departLane="best" departSpeed="max" from="4764160#0" to="762568154#0"/>
    <trip id="veh65" type="veh_passenger" depart="22.43" departLane="best" from="-144842130#1" to="136086601#2"/>
    <trip id="veh66" type="veh_passenger" depart="22.77" departLane="best" from="-142062866#9" to="448338446#3"/>
    <trip id="veh67" type="veh_passenger" depart="23.12" departLane="best" from="447989490#0" to="-160818099#0"/>
    <trip id="veh68" type="veh_passenger" depart="23.46" departLane="best" from="124126499#0" to="146175123#0"/>
    <trip id="veh70" type="veh_passenger" depart="24.15" departLane="best" from="-119201840#4" to="306737091#0"/>
    <trip id="veh71" type="veh_passenger" depart="24.50" departLane="best" from="146173175#7" to="35573587#8"/>
    <trip id="veh72" type="veh_passenger" depart="24.84" departLane="best" from="-306737089#0" to="-513580948#0"/>
    <trip id="veh73" type="veh_passenger" depart="25.19" departLane="best" from="949605667#7" to="23926912"/>
    <trip id="veh74" type="veh_passenger" depart="25.53" departLane="best" from="-123951392#1" to="144944903#3"/>
    <trip id="veh75" type="veh_passenger" depart="25.88" departLane="best" from="-160818096" to="-389530551#2"/>
    <trip id="veh76" type="veh_passenger" depart="26.23" departLane="best" from="-53621456#1" to="176018756#0"/>
    <trip id="veh77" type="veh_passenger" depart="26.57" departLane="best" departSpeed="max" from="-45869051#6" to="37837031#2"/>
    <trip id="veh78" type="veh_passenger" depart="26.92" departLane="best" from="-142063347#0" to="23008593#6"/>
    <trip id="veh79" type="veh_passenger" depart="27.26" departLane="best" from="-45869051#5" to="53621044#16"/>
    <trip id="veh80" type="veh_passenger" depart="27.61" departLane="best" departSpeed="max" from="4684903#0" to="142062866#5"/>
    <trip id="veh81" type="veh_passenger" depart="27.95" departLane="best" from="-45904914#8" to="25705166#5"/>
    <trip id="veh82" type="veh_passenger" depart="28.30" departLane="best" from="-37837031#5" to="167410411#6"/>
    <trip id="veh83" type="veh_passenger" depart="28.64" departLane="best" from="676251258#2" to="172439811#5"/>
    <trip id="veh84" type="veh_passenger" depart="28.99" departLane="best" from="123959489#2" to="46138160#4"/>
    <trip id="veh85" type="veh_passenger" depart="29.33" departLane="best" from="4631988#5" to="25705166#5"/>
    <trip id="veh86" type="veh_passenger" depart="29.68" departLane="best" from="146173175#13" to="-123951385#6"/>
    <trip id="veh87" type="veh_passenger" depart="30.02" departLane="best" from="-119201840#5" to="123959488"/>
    <trip id="veh88" type="veh_passenger" depart="30.37" departLane="best" from="32035261#5" to="25768166#1"/>
    <trip id="veh89" type="veh_passenger" depart="30.71" departLane="best" from="935471706#4" to="-146173175#11"/>
    <trip id="veh90" type="veh_passenger" depart="31.06" departLane="best" from="-1084263641#0" to="604008286#1"/>
    <trip id="veh91" type="veh_passenger" depart="31.40" departLane="best" departSpeed="max" from="4684903#0" to="-46138162#2"/>
    <trip id="veh92" type="veh_passenger" depart="31.75" departLane="best" from="-266580485#1" to="123951403#7"/>
    <trip id="veh93" type="veh_passenger" depart="32.09" departLane="best" from="-114586158#1" to="-4684837#2"/>
    <trip id="veh94" type="veh_passenger" depart="32.44" departLane="best" from="-4632076#1" to="597864555#2"/>
    <trip id="veh95" type="veh_passenger" depart="32.78" departLane="best" departSpeed="max" from="123951398#0" to="4684913#2"/>
    <trip id="veh96" type="veh_passenger" depart="33.13" departLane="best" from="-146174357#6" to="-123957197#2"/>
    <trip id="veh97" type="veh_passenger" depart="33.47" departLane="best" from="949605669#4" to="466425811"/>
    <trip id="veh98" type="veh_passenger" depart="33.82" departLane="best" from="-82456843#3" to="604008285#1"/>
    <trip id="veh99" type="veh_passenger" depart="34.16" departLane="best" from="4684840#2" to="-218160233#5"/>
    <trip id="veh100" type="veh_passenger" depart="34.51" departLane="best" from="126295932#1" to="123897184#3"/>
    <trip id="veh101" type="veh_passenger" depart="34.85" departLane="best" from="1068857237#0" to="-124126501#6"/>
    <trip id="veh102" type="veh_passenger" depart="35.20" departLane="best" from="912448045#1" to="935471707"/>
    <trip id="veh103" type="veh_passenger" depart="35.54" departLane="best" from="-4645562#24" to="46138160#2"/>
    <trip id="veh104" type="veh_passenger" depart="35.89" departLane="best" from="-8004060#4" to="949605667#8"/>
    <trip id="veh105" type="veh_passenger" depart="36.23" departLane="best" from="-146175123#8" to="332274341#0"/>
    <trip id="veh106" type="veh_passenger" depart="36.58" departLane="best" from="-201675315#6" to="4684924#1"/>
    <trip id="veh107" type="veh_passenger" depart="36.92" departLane="best" from="-82456843#2" to="172451889#5"/>
    <trip id="veh108" type="veh_passenger" depart="37.27" departLane="best" from="146173206#2" to="42754023"/>
    <trip id="veh109" type="veh_passenger" depart="37.61" departLane="best" from="-124126501#3" to="174271093#3"/>
    <trip id="veh110" type="veh_passenger" depart="37.96" departLane="best" from="-218160233#2" to="818998818#1"/>
    <trip id="veh112" type="veh_passenger" depart="38.65" departLane="best" from="-176273731" to="266580485#4"/>
    <trip id="veh113" type="veh_passenger" depart="38.99" departLane="best" from="-45904914#2" to="147399966#2"/>
    <trip id="veh114" type="veh_passenger" depart="39.34" departLane="best" from="4776204#3" to="-46115662#0"/>
    <trip id="veh115" type="veh_passenger" depart="39.68" departLane="best" from="176273226#2" to="201675315#8"/>
    <trip id="veh116" type="veh_passenger" depart="40.03" departLane="best" departSpeed="max" from="114586158#0" to="174271093#3"/>
    <trip id="veh117" type="veh_passenger" depart="40.37" departLane="best" from="144944903#4" to="676251258#1"/>
    <trip id="veh118" type="veh_passenger" depart="40.72" departLane="best" departSpeed="max" from="-340870402#1" to="32035261#7"/>
    <trip id="veh119" type="veh_passenger" depart="41.06" departLane="best" from="-45904921#0" to="1084263641#2"/>
    <trip id="veh121" type="veh_passenger" depart="41.75" departLane="best" departSpeed="max" from="-493403799" to="-443530115#0"/>
    <trip id="veh122" type="veh_passenger" depart="42.10" departLane="best" from="-142721903" to="-123955033#4"/>
    <trip id="veh123" type="veh_passenger" depart="42.44" departLane="best" from="949605669#3" to="949605667#8"/>
    <trip id="veh124" type="veh_passenger" depart="42.79" departLane="best" from="-142721904#0" to="340870402#0"/>
    <trip id="veh125" type="veh_passenger" depart="43.13" departLane="best" from="-4645562#24" to="-62116112"/>
    <trip id="veh126" type="veh_passenger" depart="43.48" departLane="best" from="4764160#2" to="4764184#1"/>
    <trip id="veh127" type="veh_passenger" depart="43.82" departLane="best" departSpeed="max" from="-800617494" to="-192895073#2"/>
    <trip id="veh130" type="veh_passenger" depart="44.86" departLane="best" from="-23926912" to="-1086261028#1"/>
    <trip id="veh131" type="veh_passenger" depart="45.20" departLane="best" from="4632071#9" to="-470352345#2"/>
    <trip id="veh132" type="veh_passenger" depart="45.55" departLane="best" from="-25432261#4" to="68314925#8"/>
    <trip id="veh133" type="veh_passenger" depart="45.89" departLane="best" from="176273226#0" to="146175123#1"/>
    <trip id="veh134" type="veh_passenger" depart="46.24" departLane="best" departSpeed="max" from="-4645566#3" to="190701274#1"/>
    <trip id="veh135" type="veh_passenger" depart="46.58" departLane="best" from="32035256#5" to="-29015532#0"/>
    <trip id="veh136" type="veh_passenger" depart="46.93" departLane="best" from="23712174#10" to="-4637744#0"/>
    <trip id="veh137" type="veh_passenger" depart="47.27" departLane="best" from="136086601#1" to="53621044#16"/>
    <trip id="veh138" type="veh_passenger" depart="47.62" departLane="best" from="-4684837#3" to="-144945039#3"/>
    <trip id="veh139" type="veh_passenger" depart="47.96" departLane="best" from="-119201840#5" to="4645566#2"/>
    <trip id="veh140" type="veh_passenger" depart="48.31" departLane="best" from="-1084263641#1" to="45869051#6"/>
    <trip id="veh141" type="veh_passenger" depart="48.65" departLane="best" from="23712174#7" to="-4632870#4"/>
    <trip id="veh142" type="veh_passenger" depart="49.00" departLane="best" from="35573587#4" to="146175123#4"/>
    <trip id="veh143" type="veh_passenger" depart="49.34" departLane="best" from="-123943333#0" to="1091642555"/>
    <trip id="veh144" type="veh_passenger" depart="49.69" departLane="best" departSpeed="max" from="-142721904#1" to="4776204#3"/>
    <trip id="veh145" type="veh_passenger" depart="50.03" departLane="best" from="-53621044#12" to="-146174357#6"/>
    <trip id="veh146" type="veh_passenger" depart="50.38" departLane="best" from="4645562#16" to="173734933"/>
    <trip id="veh147" type="veh_passenger" depart="50.72" departLane="best" from="192053554#2" to="-160818099#0"/>
    <trip id="veh148" type="veh_passenger" depart="51.07" departLane="best" departSpeed="max" from="-4764184#1" to="-513580948#2"/>
    <trip id="veh149" type="veh_passenger" depart="51.42" departLane="best" from="46115661" to="4684910#2"/>
    <trip id="veh150" type="veh_passenger" depart="51.76" departLane="best" from="513580948#1" to="-294423898"/>
    <trip id="veh151" type="veh_passenger" depart="52.11" departLane="best" from="-4632076#0" to="-146173175#7"/>
    <trip id="veh152" type="veh_passenger" depart="52.45" departLane="best" departSpeed="max" from="1086257064#0" to="202154645#2"/>
    <trip id="veh153" type="veh_passenger" depart="52.80" departLane="best" from="-201675315#5" to="6181242#0"/>
    <trip id="veh154" type="veh_passenger" depart="53.14" departLane="best" from="4684913#3" to="855646793#0"/>
    <trip id="veh155" type="veh_passenger" depart="53.49" departLane="best" from="4631991#6" to="4776204#2"/>
    <trip id="veh156" type="veh_passenger" depart="53.83" departLane="best" from="123943333#5" to="361846677#1"/>
    <trip id="veh157" type="veh_passenger" depart="54.18" departLane="best" departSpeed="max" from="-53621044#16" to="6181242#2"/>
    <trip id="veh158" type="veh_passenger" depart="54.52" departLane="best" from="46138160#4" to="4684924#7"/>
    <trip id="veh159" type="veh_passenger" depart="54.87" departLane="best" from="4631991#6" to="-4645562#14"/>
    <trip id="veh160" type="veh_passenger" depart="55.21" departLane="best" from="-45904914#0" to="-146173530#4"/>
    <trip id="veh161" type="veh_passenger" depart="55.56" departLane="best" from="470352347#1" to="4684898#9"/>
    <trip id="veh162" type="veh_passenger" depart="55.90" departLane="best" departSpeed="max" from="-42423965#2" to="4637744#1"/>
    <trip id="veh163" type="veh_passenger" depart="56.25" departLane="best" from="123955029#3" to="-482087106#2"/>
    <trip id="veh164" type="veh_passenger" depart="56.59" departLane="best" departSpeed="max" from="46115660" to="-414968621#4"/>
    <trip id="veh165" type="veh_passenger" depart="56.94" departLane="best" from="-123943333#2" to="25706928#8"/>
    <trip id="veh166" type="veh_passenger" depart="57.28" departLane="best" from="-53621044#0" to="4684924#7"/>
    <trip id="veh167" type="veh_passenger" depart="57.63" departLane="best" from="82456839#7" to="-4684837#3"/>
    <trip id="veh168" type="veh_passenger" depart="57.97" departLane="best" from="23892225#1" to="1086231887#3"/>
    <trip id="veh169" type="veh_passenger" depart="58.32" departLane="best" from="935471693" to="146173530#0"/>
    <trip id="veh170" type="veh_passenger" depart="58.66" departLane="best" from="68314925#8" to="146175123#1"/>
    <trip id="veh171" type="veh_passenger" depart="59.01" departLane="best" from="828146696" to="-23984384#1"/>
    <trip id="veh172" type="veh_passenger" depart="59.35" departLane="best" from="82456839#10" to="-4645562#10"/>
    <trip id="veh173" type="veh_passenger" depart="59.70" departLane="best" departSpeed="max" from="-146173530#9" to="123951390#2"/>
    <trip id="veh174" type="veh_passenger" depart="60.04" departLane="best" from="190733386#1" to="144842130#1"/>
    <trip id="veh175" type="veh_passenger" depart="60.39" departLane="best" from="949605667#3" to="172451889#3"/>
    <trip id="veh176" type="veh_passenger" depart="60.73" departLane="best" from="4637741#0" to="32035261#12"/>
    <trip id="veh177" type="veh_passenger" depart="61.08" departLane="best" from="10575630#0" to="604008284"/>
    <trip id="veh178" type="veh_passenger" depart="61.42" departLane="best" from="146173175#5" to="332274341#0"/>
    <trip id="veh179" type="veh_passenger" depart="61.77" departLane="best" from="35573587#6" to="25706928#13"/>
    <trip id="veh180" type="veh_passenger" depart="62.11" departLane="best" from="-77096578#2" to="142062866#4"/>
    <trip id="veh181" type="veh_passenger" depart="62.46" departLane="best" from="-25432262#1" to="-549424067#4"/>
    <trip id="veh182" type="veh_passenger" depart="62.80" departLane="best" departSpeed="max" from="-490157118#1" to="4684850#2"/>
    <trip id="veh183" type="veh_passenger" depart="63.15" departLane="best" from="32035256#9" to="-470352347#1"/>
    <trip id="veh184" type="veh_passenger" depart="63.49" departLane="best" from="414968621#5" to="1093533104#3"/>
    <trip id="veh185" type="veh_passenger" depart="63.84" departLane="best" from="-1084263641#0" to="-4684903#2"/>
    <trip id="veh186" type="veh_passenger" depart="64.18" departLane="best" from="-172248643#3" to="123897184#1"/>
    <trip id="veh187" type="veh_passenger" depart="64.53" departLane="best" from="69144322#0" to="26734659"/>
    <trip id="veh188" type="veh_passenger" depart="64.87" departLane="best" from="-53621044#10" to="-201675315#1"/>
    <trip id="veh189" type="veh_passenger" depart="65.22" departLane="best" from="-4684924#5" to="146174357#7"/>
    <trip id="veh190" type="veh_passenger" depart="65.56" departLane="best" from="1056708081#0" to="4684873#3"/>
    <trip id="veh191" type="veh_passenger" depart="65.91" departLane="best" from="123943333#5" to="172451889#5"/>
    <trip id="veh192" type="veh_passenger" depart="66.25" departLane="best" from="-23926916#0" to="123959020#7"/>
    <trip id="veh193" type="veh_passenger" depart="66.60" departLane="best" departSpeed="max" from="123951398#0" to="123897184#3"/>
    <trip id="veh194" type="veh_passenger" depart="66.94" departLane="best" from="123959489#3" to="53621043#2"/>
    <trip id="veh195" type="veh_passenger" depart="67.29" departLane="best" from="46115661" to="-23008661#0"/>
    <trip id="veh196" type="veh_passenger" depart="67.63" departLane="best" departSpeed="max" from="-144480033#1" to="25322471"/>
    <trip id="veh198" type="veh_passenger" depart="68.32" departLane="best" from="4632075#1" to="-443530115#0"/>
    <trip id="veh199" type="veh_passenger" depart="68.67" departLane="best" from="25705166#0" to="-389530551#2"/>
    <trip id="veh200" type="veh_passenger" depart="69.01" departLane="best" from="29112912#4" to="119201840#8"/>
    <trip id="veh201" type="veh_passenger" depart="69.36" departLane="best" from="4631991#2" to="124126500#1"/>
    <trip id="veh202" type="veh_passenger" depart="69.70" departLane="best" from="4684840#4" to="-142062901#1"/>
    <trip id="veh203" type="veh_passenger" depart="70.05" departLane="best" from="1102710193#2" to="23008593#3"/>
    <trip id="veh205" type="veh_passenger" depart="70.74" departLane="best" from="-142062866#1" to="-46115660"/>
    <trip id="veh206" type="veh_passenger" depart="71.08" departLane="best" from="23984383#0" to="-1086257064#0"/>
    <trip id="veh207" type="veh_passenger" depart="71.43" departLane="best" from="375657588#0" to="45869051#6"/>
    <trip id="veh208" type="veh_passenger" depart="71.77" departLane="best" from="-146173530#6" to="123943336#1"/>
    <trip id="veh210" type="veh_passenger" depart="72.46" departLane="best" departSpeed="max" from="144884824" to="-123956282#2"/>
    <trip id="veh211" type="veh_passenger" depart="72.81" departLane="best" from="-4632075#1" to="4684850#3"/>
    <trip id="veh212" type="veh_passenger" depart="73.15" departLane="best" from="-123951410#0" to="-4632076#0"/>
    <trip id="veh214" type="veh_passenger" depart="73.84" departLane="best" from="-176273731" to="765505677"/>
    <trip id="veh215" type="veh_passenger" depart="74.19" departLane="best" from="4776204#4" to="-192895073#0"/>
    <trip id="veh216" type="veh_passenger" depart="74.53" departLane="best" from="32035256#7" to="142721972#0"/>
    <trip id="veh217" type="veh_passenger" depart="74.88" departLane="best" from="4637741#2" to="146174357#7"/>
    <trip id="veh218" type="veh_passenger" depart="75.22" departLane="best" departSpeed="max" from="513580948#0" to="-414968621#4"/>
    <trip id="veh219" type="veh_passenger" depart="75.57" departLane="best" from="124123724#1" to="-4632075#1"/>
    <trip id="veh220" type="veh_passenger" depart="75.91" departLane="best" from="4631994#0" to="23712174#7"/>
    <trip id="veh221" type="veh_passenger" depart="76.26" departLane="best" from="447989490#0" to="144945039#11"/>
    <trip id="veh222" type="veh_passenger" depart="76.60" departLane="best" from="23008593#3" to="-4645562#8"/>
    <trip id="veh223" type="veh_passenger" depart="76.95" departLane="best" from="-142721906#0" to="4684850#5"/>
    <trip id="veh224" type="veh_passenger" depart="77.30" departLane="best" departSpeed="max" from="-4645566#3" to="53621044#4"/>
    <trip id="veh225" type="veh_passenger" depart="77.64" departLane="best" from="-146173175#9" to="-175668671#0"/>
    <trip id="veh227" type="veh_passenger" depart="78.33" departLane="best" departSpeed="max" from="32035256#0" to="-140237404"/>
    <trip id="veh228" type="veh_passenger" depart="78.68" departLane="best" from="-1086261028#0" to="146174356"/>
    <trip id="veh229" type="veh_passenger" depart="79.02" departLane="best" from="1102710194#0" to="-29112912#4"/>
    <trip id="veh230" type="veh_passenger" depart="79.37" departLane="best" departSpeed="max" from="114586158#0" to="53621044#15"/>
    <trip id="veh232" type="veh_passenger" depart="80.06" departLane="best" from="-4684898#4" to="454601001#0"/>
    <trip id="veh234" type="veh_passenger" depart="80.75" departLane="best" from="-6181242#0" to="-443832568#2"/>
    <trip id="veh235" type="veh_passenger" depart="81.09" departLane="best" from="-4684873#2" to="-77096578#4"/>
    <trip id="veh236" type="veh_passenger" depart="81.44" departLane="best" from="1105750141#2" to="42423965#2"/>
    <trip id="veh237" type="veh_passenger" depart="81.78" departLane="best" from="-146173530#7" to="190701274#0"/>
    <trip id="veh238" type="veh_passenger" depart="82.13" departLane="best" from="-42423965#0" to="37837031#2"/>
    <trip id="veh239" type="veh_passenger" depart="82.47" departLane="best" from="123951385#4" to="-123943336#4"/>
    <trip id="veh240" type="veh_passenger" depart="82.82" departLane="best" from="-53621044#8" to="27609294#4"/>
    <trip id="veh241" type="veh_passenger" depart="83.16" departLane="best" from="23121644#1" to="-218160233#3"/>
    <trip id="veh242" type="veh_passenger" depart="83.51" departLane="best" from="123959020#10" to="-160818099#0"/>
    <trip id="veh243" type="veh_passenger" depart="83.85" departLane="best" from="203845135#2" to="-123943333#5"/>
    <trip id="veh244" type="veh_passenger" depart="84.20" departLane="best" from="-949605669#4" to="167410409#1"/>
    <trip id="veh245" type="veh_passenger" depart="84.54" departLane="best" from="-123943336#5" to="23892225#11"/>
    <trip id="veh246" type="veh_passenger" depart="84.89" departLane="best" from="176273226#3" to="123959020#1"/>
    <trip id="veh247" type="veh_passenger" depart="85.23" departLane="best" departSpeed="max" from="-123959488" to="-949605667#5"/>
    <trip id="veh248" type="veh_passenger" depart="85.58" departLane="best" from="-37837031#0" to="-549424067#0"/>
    <trip id="veh249" type="veh_passenger" depart="85.92" departLane="best" from="443530115#0" to="-949605667#5"/>
    <trip id="veh250" type="veh_passenger" depart="86.27" departLane="best" from="375657588#2" to="4645566#3"/>
    <trip id="veh251" type="veh_passenger" depart="86.61" departLane="best" departSpeed="max" from="-4632782#1" to="-142722143#0"/>