<?xml version="1.0" encoding="UTF-8"?>

<!-- generated on 2023-01-22 20:01:30.538588 by osmWebWizard.py v1_15_0+0002-e6790248698
<configuration>
    <allow-fringe.min-length value="1000.0"/>
    <end value="500"/>
    <fringe-factor value="5"/>
    <fringe-start-attributes value="departSpeed=&quot;max&quot;"/>
    <insertion-density value="120.0"/>
    <lanes value="True"/>
    <min-distance.fringe value="10.0"/>
    <min-distance value="300.0"/>
    <net-file value="C:\Users\Maciek\Sumo\2023-01-22-20-01-25\osm.net.xml.gz"/>
    <remove-loops value="True"/>
    <route-file value="C:\Users\Maciek\Sumo\2023-01-22-20-01-25\osm.passenger.rou.xml"/>
    <trip-attributes value="departLane=&quot;best&quot;"/>
    <output-trip-file value="C:\Users\Maciek\Sumo\2023-01-22-20-01-25\osm.passenger.trips.xml"/>
    <prefix value="veh"/>
    <validate value="True"/>
    <vehicle-class value="passenger"/>
</configuration>
-->

<!-- generated on 2023-01-22 20:01:30 by Eclipse SUMO duarouter Version 1.15.0
<configuration xmlns:xsi="http://www.w3.org/2001/XMLSchema-instance" xsi:noNamespaceSchemaLocation="http://sumo.dlr.de/xsd/duarouterConfiguration.xsd">

    <input>
        <net-file value="C:\Users\Maciek\Sumo\2023-01-22-20-01-25\osm.net.xml.gz"/>
        <route-files value="C:\Users\Maciek\Sumo\2023-01-22-20-01-25\osm.passenger.trips.xml"/>
    </input>

    <output>
        <output-file value="C:\Users\Maciek\Sumo\2023-01-22-20-01-25\osm.passenger.trips.xml.tmp"/>
        <alternatives-output value="NUL"/>
        <write-trips value="true"/>
    </output>

    <processing>
        <remove-loops value="true"/>
    </processing>

    <time>
        <begin value="0"/>
        <end value="500"/>
    </time>

    <report>
        <no-warnings value="true"/>
        <ignore-errors value="true"/>
        <no-step-log value="true"/>
    </report>

</configuration>
-->

<routes xmlns:xsi="http://www.w3.org/2001/XMLSchema-instance" xsi:noNamespaceSchemaLocation="http://sumo.dlr.de/xsd/routes_file.xsd">
    <vType id="veh_passenger" vClass="passenger"/>
    <trip id="veh0" type="veh_passenger" depart="0.00" departLane="best" from="298912688#0" to="-1102369962"/>
    <trip id="veh1" type="veh_passenger" depart="0.22" departLane="best" from="415280722" to="312533962#0"/>
    <trip id="veh2" type="veh_passenger" depart="0.44" departLane="best" departSpeed="max" from="6227654#0" to="1127602336"/>
    <trip id="veh3" type="veh_passenger" depart="0.65" departLane="best" from="154041909" to="110464119#0"/>
    <trip id="veh4" type="veh_passenger" depart="0.87" departLane="best" departSpeed="max" from="-4790825#2" to="232070355#0"/>
    <trip id="veh5" type="veh_passenger" depart="1.09" departLane="best" from="-1083226619#0" to="-566764344"/>
    <trip id="veh6" type="veh_passenger" depart="1.31" departLane="best" from="301733776" to="24913304#2"/>
    <trip id="veh7" type="veh_passenger" depart="1.53" departLane="best" departSpeed="max" from="-4790825#2" to="284760972"/>
    <trip id="veh8" type="veh_passenger" depart="1.74" departLane="best" departSpeed="max" from="4612970#0" to="-1076055688#0"/>
    <trip id="veh9" type="veh_passenger" depart="1.96" departLane="best" departSpeed="max" from="4612969#0" to="-328426193#2"/>
    <trip id="veh10" type="veh_passenger" depart="2.18" departLane="best" from="1115509343#0" to="4402014#0"/>
    <trip id="veh11" type="veh_passenger" depart="2.40" departLane="best" from="68711084#0" to="24992424#3"/>
    <trip id="veh12" type="veh_passenger" depart="2.62" departLane="best" departSpeed="max" from="4790813#0" to="288354369"/>
    <trip id="veh13" type="veh_passenger" depart="2.83" departLane="best" departSpeed="max" from="4612969#0" to="370617120#0"/>
    <trip id="veh14" type="veh_passenger" depart="3.05" departLane="best" from="1133761786" to="831658811#0"/>
    <trip id="veh15" type="veh_passenger" depart="3.27" departLane="best" from="1133761676#0" to="25086766"/>
    <trip id="veh16" type="veh_passenger" depart="3.49" departLane="best" from="4615597#0" to="291270698#0"/>
    <trip id="veh17" type="veh_passenger" depart="3.71" departLane="best" from="507023458" to="281751681"/>
    <trip id="veh18" type="veh_passenger" depart="3.92" departLane="best" from="-330840125#1" to="-1123150361#2"/>
    <trip id="veh20" type="veh_passenger" depart="4.36" departLane="best" departSpeed="max" from="-15973619#7" to="-909333702"/>
    <trip id="veh22" type="veh_passenger" depart="4.80" departLane="best" from="296599839#0" to="1133761676#0"/>
    <trip id="veh23" type="veh_passenger" depart="5.01" departLane="best" from="1133457727" to="-67713449"/>
    <trip id="veh24" type="veh_passenger" depart="5.23" departLane="best" departSpeed="max" from="-85255869#2" to="708296766#0"/>
    <trip id="veh25" type="veh_passenger" depart="5.45" departLane="best" from="301167584#0" to="289830064"/>
    <trip id="veh26" type="veh_passenger" depart="5.67" departLane="best" from="437325046#0" to="370617120#0"/>
    <trip id="veh27" type="veh_passenger" depart="5.89" departLane="best" departSpeed="max" from="-35557161#3" to="114667396#0"/>
    <trip id="veh28" type="veh_passenger" depart="6.10" departLane="best" from="882389497" to="298912688#0"/>
    <trip id="veh29" type="veh_passenger" depart="6.32" departLane="best" from="-1133992822" to="31619761"/>
    <trip id="veh30" type="veh_passenger" depart="6.54" departLane="best" departSpeed="max" from="4790813#0" to="4610355#0"/>
    <trip id="veh31" type="veh_passenger" depart="6.76" departLane="best" from="1101404059" to="1025851953"/>
    <trip id="veh32" type="veh_passenger" depart="6.97" departLane="best" from="4615497#6" to="751595929#0"/>
    <trip id="veh33" type="veh_passenger" depart="7.19" departLane="best" from="566764344" to="1105574290"/>
    <trip id="veh34" type="veh_passenger" depart="7.41" departLane="best" from="307098733#0" to="154041918#0"/>
    <trip id="veh35" type="veh_passenger" depart="7.63" departLane="best" departSpeed="max" from="67713117#0" to="-194069450#2"/>
    <trip id="veh36" type="veh_passenger" depart="7.85" departLane="best" departSpeed="max" from="-85255869#2" to="1020548406"/>
    <trip id="veh38" type="veh_passenger" depart="8.28" departLane="best" from="281750887#0" to="60333311#0"/>
    <trip id="veh39" type="veh_passenger" depart="8.50" departLane="best" departSpeed="max" from="131505631" to="-755340907#3"/>
    <trip id="veh40" type="veh_passenger" depart="8.72" departLane="best" from="973573910" to="23386525#0"/>
    <trip id="veh41" type="veh_passenger" depart="8.94" departLane="best" from="176043794" to="-1126465845"/>
    <trip id="veh42" type="veh_passenger" depart="9.15" departLane="best" departSpeed="max" from="-22954356#4" to="293931248"/>
    <trip id="veh43" type="veh_passenger" depart="9.37" departLane="best" from="-4611696#3" to="164039095#1"/>
    <trip id="veh44" type="veh_passenger" depart="9.59" departLane="best" from="-1133992736#1" to="131577612#0"/>
    <trip id="veh45" type="veh_passenger" depart="9.81" departLane="best" from="932637377" to="24242892#0"/>
    <trip id="veh46" type="veh_passenger" depart="10.03" departLane="best" from="82659290" to="4790825#0"/>
    <trip id="veh48" type="veh_passenger" depart="10.46" departLane="best" from="320420913#0" to="24540242#0"/>
    <trip id="veh50" type="veh_passenger" depart="10.90" departLane="best" departSpeed="max" from="-23386525#6" to="169195795#7"/>
    <trip id="veh51" type="veh_passenger" depart="11.12" departLane="best" from="173197451#3" to="785302399"/>
    <trip id="veh52" type="veh_passenger" depart="11.33" departLane="best" departSpeed="max" from="555858098#0" to="1025851953"/>
    <trip id="veh53" type="veh_passenger" depart="11.55" departLane="best" from="202156994#0" to="-4613298#2"/>
    <trip id="veh54" type="veh_passenger" depart="11.77" departLane="best" departSpeed="max" from="67713117#0" to="492340367#0"/>
    <trip id="veh55" type="veh_passenger" depart="11.99" departLane="best" departSpeed="max" from="1079386620#0" to="298912688#0"/>
    <trip id="veh56" type="veh_passenger" depart="12.21" departLane="best" from="289965634" to="-4381079#0"/>
    <trip id="veh57" type="veh_passenger" depart="12.42" departLane="best" from="4403559#0" to="246044841#0"/>
    <trip id="veh58" type="veh_passenger" depart="12.64" departLane="best" departSpeed="max" from="-1006033769" to="1113707139#0"/>
    <trip id="veh59" type="veh_passenger" depart="12.86" departLane="best" departSpeed="max" from="-1055409898#1" to="690322561"/>
    <trip id="veh60" type="veh_passenger" depart="13.08" departLane="best" from="60333311#0" to="4615546#3"/>
    <trip id="veh61" type="veh_passenger" depart="13.30" departLane="best" from="-1100824590" to="-147066248#7"/>
    <trip id="veh62" type="veh_passenger" depart="13.51" departLane="best" from="60333311#0" to="19002403#0"/>
    <trip id="veh63" type="veh_passenger" depart="13.73" departLane="best" from="-168940071#1" to="22954356#0"/>
    <trip id="veh65" type="veh_passenger" depart="14.17" departLane="best" departSpeed="max" from="4412930" to="31912630#6"/>
    <trip id="veh66" type="veh_passenger" depart="14.39" departLane="best" from="187111590" to="-24992424#2"/>
    <trip id="veh67" type="veh_passenger" depart="14.60" departLane="best" departSpeed="max" from="-85255869#2" to="507023458"/>
    <trip id="veh68" type="veh_passenger" depart="14.82" departLane="best" from="154041912#0" to="734578686"/>
    <trip id="veh69" type="veh_passenger" depart="15.04" departLane="best" from="246044843#0" to="370617120#0"/>
    <trip id="veh70" type="veh_passenger" depart="15.26" departLane="best" departSpeed="max" from="-4612427#2" to="1103300964#1"/>
    <trip id="veh71" type="veh_passenger" depart="15.48" departLane="best" from="932637371" to="47016365#0"/>
    <trip id="veh72" type="veh_passenger" depart="15.69" departLane="best" from="-164039095#0" to="23851922#0"/>
    <trip id="veh73" type="veh_passenger" depart="15.91" departLane="best" departSpeed="max" from="-24241762#5" to="-82658674#1"/>
    <trip id="veh75" type="veh_passenger" depart="16.35" departLane="best" from="437325047#5" to="-76611950"/>
    <trip id="veh76" type="veh_passenger" depart="16.57" departLane="best" from="-153692976#1" to="296122995"/>
    <trip id="veh77" type="veh_passenger" depart="16.78" departLane="best" from="-541295974" to="606078071#0"/>
    <trip id="veh78" type="veh_passenger" depart="17.00" departLane="best" from="492340367#0" to="168943639#0"/>
    <trip id="veh79" type="veh_passenger" depart="17.22" departLane="best" from="649959246#0" to="311357732#1"/>
    <trip id="veh80" type="veh_passenger" depart="17.44" departLane="best" departSpeed="max" from="-4615546#4" to="326116285#0"/>
    <trip id="veh81" type="veh_passenger" depart="17.66" departLane="best" from="750204886" to="281479938"/>
    <trip id="veh82" type="veh_passenger" depart="17.87" departLane="best" from="187103792#0" to="4610608"/>
    <trip id="veh83" type="veh_passenger" depart="18.09" departLane="best" departSpeed="max" from="4612969#0" to="-474362271"/>
    <trip id="veh84" type="veh_passenger" depart="18.31" departLane="best" departSpeed="max" from="-195091665#1" to="340498982#4"/>
    <trip id="veh85" type="veh_passenger" depart="18.53" departLane="best" from="131577613#0" to="196520271#0"/>
    <trip id="veh86" type="veh_passenger" depart="18.75" departLane="best" departSpeed="max" from="371927739#0" to="312357351#0"/>
    <trip id="veh87" type="veh_passenger" depart="18.96" departLane="best" departSpeed="max" from="847103786#0" to="-24993933#3"/>
    <trip id="veh88" type="veh_passenger" depart="19.18" departLane="best" from="131577613#0" to="1133761825#0"/>
    <trip id="veh89" type="veh_passenger" depart="19.40" departLane="best" from="507023458" to="1020548406"/>
    <trip id="veh90" type="veh_passenger" depart="19.62" departLane="best" departSpeed="max" from="-4610608" to="188044903#0"/>
    <trip id="veh92" type="veh_passenger" depart="20.05" departLane="best" from="750204886" to="67713452"/>
    <trip id="veh93" type="veh_passenger" depart="20.27" departLane="best" from="-168943639#3" to="4790825#0"/>
    <trip id="veh94" type="veh_passenger" depart="20.49" departLane="best" departSpeed="max" from="24914141#0" to="-1133992735#1"/>
    <trip id="veh95" type="veh_passenger" depart="20.71" departLane="best" from="82654059#0" to="681299268"/>
    <trip id="veh96" type="veh_passenger" depart="20.92" departLane="best" departSpeed="max" from="4790813#0" to="-4611696#3"/>
    <trip id="veh97" type="veh_passenger" depart="21.14" departLane="best" from="-19002363#0" to="-744938428#3"/>
    <trip id="veh98" type="veh_passenger" depart="21.36" departLane="best" departSpeed="max" from="131505631" to="-147066248#7"/>
    <trip id="veh99" type="veh_passenger" depart="21.58" departLane="best" from="188044903#0" to="879144133"/>
    <trip id="veh100" type="veh_passenger" depart="21.80" departLane="best" departSpeed="max" from="-85255869#2" to="4610608"/>
    <trip id="veh102" type="veh_passenger" depart="22.23" departLane="best" from="24914141#7" to="35557143#0"/>
    <trip id="veh104" type="veh_passenger" depart="22.67" departLane="best" from="82654059#0" to="281751681"/>
    <trip id="veh105" type="veh_passenger" depart="22.89" departLane="best" from="246044848" to="424323348"/>
    <trip id="veh107" type="veh_passenger" depart="23.32" departLane="best" from="202817674#0" to="4773463#1"/>
    <trip id="veh108" type="veh_passenger" depart="23.54" departLane="best" from="-335462874#2" to="824274188#0"/>
    <trip id="veh109" type="veh_passenger" depart="23.76" departLane="best" departSpeed="max" from="-15973619#7" to="-4615603#1"/>
    <trip id="veh111" type="veh_passenger" depart="24.19" departLane="best" from="-541295974" to="-310176513#3"/>
    <trip id="veh112" type="veh_passenger" depart="24.41" departLane="best" from="61583424#0" to="1020548406"/>
    <trip id="veh115" type="veh_passenger" depart="25.07" departLane="best" from="23852053#0" to="708296765#0"/>
    <trip id="veh116" type="veh_passenger" depart="25.28" departLane="best" from="-4612976" to="34848160#0"/>
    <trip id="veh117" type="veh_passenger" depart="25.50" departLane="best" from="-649959246#4" to="154041918#0"/>
    <trip id="veh118" type="veh_passenger" depart="25.72" departLane="best" from="312651888#1" to="1101961674#0"/>
    <trip id="veh119" type="veh_passenger" depart="25.94" departLane="best" from="1101961674#0" to="-437325047#3"/>
    <trip id="veh121" type="veh_passenger" depart="26.37" departLane="best" from="153698391#0" to="-744938428#0"/>
    <trip id="veh122" type="veh_passenger" depart="26.59" departLane="best" departSpeed="max" from="-85255869#2" to="705182549"/>
    <trip id="veh123" type="veh_passenger" depart="26.81" departLane="best" from="60333314#0" to="532727925#0"/>
    <trip id="veh124" type="veh_passenger" depart="27.03" departLane="best" from="1133457727" to="-4412868"/>
    <trip id="veh125" type="veh_passenger" depart="27.25" departLane="best" from="47016365#0" to="339201217"/>
    <trip id="veh126" type="veh_passenger" depart="27.46" departLane="best" from="289966281#0" to="-882389497"/>
    <trip id="veh127" type="veh_passenger" depart="27.68" departLane="best" from="307098733#0" to="-1076056354#1"/>
    <trip id="veh128" type="veh_passenger" depart="27.90" departLane="best" from="46140382" to="1101404059"/>
    <trip id="veh129" type="veh_passenger" depart="28.12" departLane="best" from="31112516#0" to="72157174#0"/>
    <trip id="veh130" type="veh_passenger" depart="28.34" departLane="best" from="-268002748#4" to="292429062#0"/>
    <trip id="veh131" type="veh_passenger" depart="28.55" departLane="best" departSpeed="max" from="-22954356#4" to="25086767#0"/>
    <trip id="veh132" type="veh_passenger" depart="28.77" departLane="best" departSpeed="max" from="-853045168" to="4790869#0"/>
    <trip id="veh133" type="veh_passenger" depart="28.99" departLane="best" from="342968607#0" to="-6228081#1"/>
    <trip id="veh134" type="veh_passenger" depart="29.21" departLane="best" from="296598505" to="1025851953"/>
    <trip id="veh135" type="veh_passenger" depart="29.43" departLane="best" from="190447768#0" to="606078071#0"/>
    <trip id="veh136" type="veh_passenger" depart="29.64" departLane="best" departSpeed="max" from="4790813#0" to="-24242882#1"/>
    <trip id="veh137" type="veh_passenger" depart="29.86" departLane="best" from="131577613#0" to="1040930907#1"/>
    <trip id="veh138" type="veh_passenger" depart="30.08" departLane="best" departSpeed="max" from="-1024034687" to="4592739#0"/>
    <trip id="veh140" type="veh_passenger" depart="30.52" departLane="best" from="424323348" to="25086766"/>
    <trip id="veh141" type="veh_passenger" depart="30.73" departLane="best" departSpeed="max" from="154043354" to="-1079386620#6"/>
    <trip id="veh142" type="veh_passenger" depart="30.95" departLane="best" from="-155186522#1" to="532727925#0"/>
    <trip id="veh143" type="veh_passenger" depart="31.17" departLane="best" from="66071366#3" to="24913519#0"/>
    <trip id="veh144" type="veh_passenger" depart="31.39" departLane="best" from="301733777#0" to="281751681"/>
    <trip id="veh145" type="veh_passenger" depart="31.61" departLane="best" departSpeed="max" from="-31619761" to="31912630#0"/>
    <trip id="veh146" type="veh_passenger" depart="31.82" departLane="best" departSpeed="max" from="1101403674" to="60333313"/>
    <trip id="veh147" type="veh_passenger" depart="32.04" departLane="best" from="4611726" to="4790825#0"/>
    <trip id="veh148" type="veh_passenger" depart="32.26" departLane="best" from="62363401" to="705182549"/>
    <trip id="veh149" type="veh_passenger" depart="32.48" departLane="best" from="-744938428#3" to="-26109166"/>
    <trip id="veh150" type="veh_passenger" depart="32.69" departLane="best" from="4588219#0" to="532727925#0"/>
    <trip id="veh151" type="veh_passenger" depart="32.91" departLane="best" departSpeed="max" from="147066248#0" to="29177662#0"/>
    <trip id="veh152" type="veh_passenger" depart="33.13" departLane="best" from="-320462163#3" to="694626562"/>
    <trip id="veh153" type="veh_passenger" depart="33.35" departLane="best" from="530085625#0" to="831694400"/>
    <trip id="veh154" type="veh_passenger" depart="33.57" departLane="best" departSpeed="max" from="4612970#0" to="532727925#0"/>
    <trip id="veh155" type="veh_passenger" depart="33.78" departLane="best" from="-1076055688#1" to="370617120#0"/>
    <trip id="veh156" type="veh_passenger" depart="34.00" departLane="best" from="1107953489#0" to="694626562"/>
    <trip id="veh157" type="veh_passenger" depart="34.22" departLane="best" departSpeed="max" from="4612968#0" to="4790839#0"/>
    <trip id="veh158" type="veh_passenger" depart="34.44" departLane="best" from="4610600" to="-284945379#1"/>
    <trip id="veh159" type="veh_passenger" depart="34.66" departLane="best" departSpeed="max" from="555858098#0" to="4790801"/>
    <trip id="veh160" type="veh_passenger" depart="34.87" departLane="best" from="-505475202#1" to="46140382"/>
    <trip id="veh161" type="veh_passenger" depart="35.09" departLane="best" departSpeed="max" from="187091991" to="1102163308#0"/>
    <trip id="veh162" type="veh_passenger" depart="35.31" departLane="best" from="4611708#0" to="-84960597#2"/>
    <trip id="veh164" type="veh_passenger" depart="35.75" departLane="best" departSpeed="max" from="1103591568#0" to="4790839#0"/>
    <trip id="veh166" type="veh_passenger" depart="36.18" departLane="best" from="299397170" to="154041918#0"/>
    <trip id="veh167" type="veh_passenger" depart="36.40" departLane="best" from="-1132162834" to="24540242#0"/>
    <trip id="veh168" type="veh_passenger" depart="36.62" departLane="best" departSpeed="max" from="753316505#0" to="292429062#0"/>
    <trip id="veh169" type="veh_passenger" depart="36.84" departLane="best" from="82659290" to="-4613298#2"/>
    <trip id="veh170" type="veh_passenger" depart="37.05" departLane="best" from="824274188#0" to="1025851953"/>
    <trip id="veh171" type="veh_passenger" depart="37.27" departLane="best" departSpeed="max" from="-22954356#4" to="169195795#7"/>
    <trip id="veh172" type="veh_passenger" depart="37.49" departLane="best" departSpeed="max" from="371927739#0" to="1105526112#0"/>
    <trip id="veh173" type="veh_passenger" depart="37.71" departLane="best" from="289830064" to="23386525#0"/>
    <trip id="veh174" type="veh_passenger" depart="37.93" departLane="best" from="82659290" to="281751681"/>
    <trip id="veh175" type="veh_passenger" depart="38.14" departLane="best" departSpeed="max" from="-7917219#3" to="340498982#4"/>
    <trip id="veh176" type="veh_passenger" depart="38.36" departLane="best" departSpeed="max" from="-1006033769" to="681299268"/>
    <trip id="veh177" type="veh_passenger" depart="38.58" departLane="best" from="246044841#0" to="35557161#3"/>
    <trip id="veh178" type="veh_passenger" depart="38.80" departLane="best" from="-705182550" to="311357732#1"/>
    <trip id="veh179" type="veh_passenger" depart="39.02" departLane="best" from="1127597264#1" to="-168940071#1"/>
    <trip id="veh180" type="veh_passenger" depart="39.23" departLane="best" from="311690284" to="1119935543"/>
    <trip id="veh181" type="veh_passenger" depart="39.45" departLane="best" from="1101404059" to="4773463#1"/>
    <trip id="veh182" type="veh_passenger" depart="39.67" departLane="best" from="344594966" to="1101961674#0"/>
    <trip id="veh183" type="veh_passenger" depart="39.89" departLane="best" departSpeed="max" from="1101403674" to="155186522#0"/>
    <trip id="veh185" type="veh_passenger" depart="40.32" departLane="best" from="24992424#0" to="164039095#1"/>
    <trip id="veh186" type="veh_passenger" depart="40.54" departLane="best" from="-52328295#2" to="312533962#0"/>
    <trip id="veh187" type="veh_passenger" depart="40.76" departLane="best" from="-649959246#4" to="289966845"/>
    <trip id="veh188" type="veh_passenger" depart="40.98" departLane="best" from="1083226638" to="24914141#7"/>
    <trip id="veh189" type="veh_passenger" depart="41.20" departLane="best" departSpeed="max" from="-1006033769" to="1083226619#1"/>
    <trip id="veh190" type="veh_passenger" depart="41.41" departLane="best" from="155186522#0" to="281751681"/>
    <trip id="veh191" type="veh_passenger" depart="41.63" departLane="best" from="307098733#0" to="195401006"/>
    <trip id="veh192" type="veh_passenger" depart="41.85" departLane="best" from="168940071#2" to="-744938428#3"/>
    <trip id="veh193" type="veh_passenger" depart="42.07" departLane="best" from="187103792#0" to="60333317#2"/>
    <trip id="veh194" type="veh_passenger" depart="42.29" departLane="best" from="1132678575#0" to="-4612966#1"/>
    <trip id="veh195" type="veh_passenger" depart="42.50" departLane="best" from="165415464#0" to="23851917#0"/>
    <trip id="veh196" type="veh_passenger" depart="42.72" departLane="best" from="296122995" to="112128418#0"/>
    <trip id="veh197" type="veh_passenger" depart="42.94" departLane="best" from="461526152#0" to="-437325046#1"/>
    <trip id="veh198" type="veh_passenger" depart="43.16" departLane="best" from="313195075" to="-82658674#1"/>
    <trip id="veh199" type="veh_passenger" depart="43.38" departLane="best" departSpeed="max" from="-4611713#1" to="-1102369946"/>
    <trip id="veh200" type="veh_passenger" depart="43.59" departLane="best" departSpeed="max" from="-694626562" to="-202817674#6"/>
    <trip id="veh201" type="veh_passenger" depart="43.81" departLane="best" departSpeed="max" from="4790813#0" to="-172080041#2"/>
    <trip id="veh202" type="veh_passenger" depart="44.03" departLane="best" departSpeed="max" from="147646845#0" to="295445243"/>
    <trip id="veh203" type="veh_passenger" depart="44.25" departLane="best" from="4611693#2" to="-326116286#2"/>
    <trip id="veh204" type="veh_passenger" depart="44.47" departLane="best" from="196520271#0" to="318915602#0"/>
    <trip id="veh206" type="veh_passenger" depart="44.90" departLane="best" from="437325047#0" to="4592725#0"/>
    <trip id="veh207" type="veh_passenger" depart="45.12" departLane="best" from="222328410" to="-165415464#3"/>
    <trip id="veh208" type="veh_passenger" depart="45.34" departLane="best" from="-4396823" to="824127300#0"/>
    <trip id="veh209" type="veh_passenger" depart="45.55" departLane="best" from="23851917#0" to="-1132162834"/>
    <trip id="veh210" type="veh_passenger" depart="45.77" departLane="best" from="-744938428#3" to="4773463#1"/>
    <trip id="veh211" type="veh_passenger" depart="45.99" departLane="best" from="176043807#1" to="4612961#2"/>
    <trip id="veh212" type="veh_passenger" depart="46.21" departLane="best" from="312533961#0" to="890801131#0"/>
    <trip id="veh214" type="veh_passenger" depart="46.64" departLane="best" from="61584187#0" to="289966097"/>
    <trip id="veh215" type="veh_passenger" depart="46.86" departLane="best" from="344594966" to="232070355#0"/>
    <trip id="veh216" type="veh_passenger" depart="47.08" departLane="best" from="465376243#0" to="24914141#7"/>
    <trip id="veh217" type="veh_passenger" depart="47.30" departLane="best" departSpeed="max" from="6227654#0" to="415280722"/>
    <trip id="veh218" type="veh_passenger" depart="47.52" departLane="best" from="187111590" to="1024034690"/>
    <trip id="veh219" type="veh_passenger" depart="47.73" departLane="best" from="-734578686" to="298473729"/>
    <trip id="veh220" type="veh_passenger" depart="47.95" departLane="best" departSpeed="max" from="4412930" to="24240245#0"/>
    <trip id="veh222" type="veh_passenger" depart="48.39" departLane="best" from="-15971189" to="1077923225#0"/>
    <trip id="veh223" type="veh_passenger" depart="48.61" departLane="best" departSpeed="max" from="-853045168" to="1112756312"/>
    <trip id="veh224" type="veh_passenger" depart="48.82" departLane="best" from="156364562#0" to="-369223458#1"/>
    <trip id="veh225" type="veh_passenger" depart="49.04" departLane="best" from="566764344" to="320420916#0"/>
    <trip id="veh226" type="veh_passenger" depart="49.26" departLane="best" from="-335462916" to="-153698410"/>
    <trip id="veh227" type="veh_passenger" depart="49.48" departLane="best" departSpeed="max" from="147646845#0" to="246044848"/>
    <trip id="veh228" type="veh_passenger" depart="49.70" departLane="best" departSpeed="max" from="147646845#0" to="-66071366#2"/>
    <trip id="veh229" type="veh_passenger" depart="49.91" departLane="best" from="153698413" to="606078065#0"/>
    <trip id="veh230" type="veh_passenger" depart="50.13" departLane="best" from="281750887#0" to="326116285#0"/>
    <trip id="veh231" type="veh_passenger" depart="50.35" departLane="best" from="4790869#0" to="457031289"/>
    <trip id="veh232" type="veh_passenger" depart="50.57" departLane="best" from="1133761725" to="4615403#0"/>
    <trip id="veh233" type="veh_passenger" depart="50.79" departLane="best" departSpeed="max" from="112128825#0" to="437325048#0"/>
    <trip id="veh235" type="veh_passenger" depart="51.22" departLane="best" from="153698394#3" to="424323348"/>
    <trip id="veh236" type="veh_passenger" depart="51.44" departLane="best" departSpeed="max" from="24914141#0" to="288354369"/>
    <trip id="veh237" type="veh_passenger" depart="51.66" departLane="best" departSpeed="max" from="-4790825#2" to="-755340907#3"/>
    <trip id="veh238" type="veh_passenger" depart="51.88" departLane="best" from="15977422#0" to="-1103300964#2"/>
    <trip id="veh239" type="veh_passenger" depart="52.09" departLane="best" from="1112756312" to="312651888#0"/>
    <trip id="veh240" type="veh_passenger" depart="52.31" departLane="best" departSpeed="max" from="147066248#0" to="-4611693#4"/>
    <trip id="veh241" type="veh_passenger" depart="52.53" departLane="best" departSpeed="max" from="187091991" to="31912630#0"/>
    <trip id="veh242" type="veh_passenger" depart="52.75" departLane="best" from="292429056#0" to="-1102369963"/>
    <trip id="veh243" type="veh_passenger" depart="52.97" departLane="best" from="1133761829" to="-268002748#4"/>
    <trip id="veh245" type="veh_passenger" depart="53.40" departLane="best" from="28251222#0" to="195091665#0"/>
    <trip id="veh246" type="veh_passenger" depart="53.62" departLane="best" from="23443935#0" to="1134270968#0"/>
    <trip id="veh247" type="veh_passenger" depart="53.84" departLane="best" from="4615498#0" to="-24993933#3"/>
    <trip id="veh248" type="veh_passenger" depart="54.06" departLane="best" from="4402037#0" to="1134270968#0"/>
    <trip id="veh249" type="veh_passenger" depart="54.27" departLane="best" from="-560370523" to="4615546#3"/>
    <trip id="veh250" type="veh_passenger" depart="54.49" departLane="best" from="-76212441#1" to="-195397539"/>
    <trip id="veh251" type="veh_passenger" depart="54.71" departLane="best" departSpeed="max" from="-1055409898#1" to="246044841#0"/>
    <trip id="veh253" type="veh_passenger" depart="55.15" departLane="best" from="301733776" to="4610480"/>
    <trip id="veh254" type="veh_passenger" depart="55.36" departLane="best" from="301733777#0" to="437325050#0"/>
    <trip id="veh255" type="veh_passenger" depart="55.58" departLane="best" departSpeed="max" from="78298215#0" to="1105526111"/>
    <trip id="veh256" type="veh_passenger" depart="55.80" departLane="best" departSpeed="max" from="-1055409898#1" to="-4381079#0"/>
    <trip id="veh257" type="veh_passenger" depart="56.02" departLane="best" from="-24913267#3" to="311357732#1"/>
    <trip id="veh258" type="veh_passenger" depart="56.24" departLane="best" from="25086767#0" to="-755340907#3"/>
    <trip id="veh259" type="veh_passenger" depart="56.45" departLane="best" departSpeed="max" from="328426208#0" to="4570580#0"/>
    <trip id="veh260" type="veh_passenger" depart="56.67" departLane="best" from="389101365#0" to="289666657"/>
    <trip id="veh261" type="veh_passenger" depart="56.89" departLane="best" departSpeed="max" from="43164692" to="-292429056#5"/>